Sistemas teste e codigos/Artigo_Testes_Sistema5barras/MCS_CE/case5.m
function mpc = sist5

%% MATPOWER Case Format : Version 2
mpc.version = '2';

%%-----  Power Flow Data  -----%%
%% system MVA base
mpc.baseMVA = 1;

%% bus data
% 	%bus_i	type	Pd		Qd	 	Gs		Bs		area   	Vm			Va			baseKV		zone		Vmax	Vmin
% mpc.bus = [
% 	1		3		0		0		0		0		1		1.04		0			1			1			1.1		0.9;
% 	2		1		1.15	0.6		0		0		1		0.9603		-5.9759		1			1			1.1		0.9;
% 	3		2		0		0		0		0		1		1.02		-3.1112		1			1			1.1		0.9;
% 	4		1		0.7		0.3		0		0		1		0.9151		-10.0783	1			1			1.1		0.9;
% 	5		1		0.7		0.3		0		0		1		0.9681		-5.2483		1			1			1.1		0.9;
% ];


%% bus data
%	bus_i	type	Pd		Qd	 	Gs		Bs		area   	Vm			Va			baseKV		zone		Vmax	Vmin
mpc.bus = [
	1		3		0		0		0		0		1		1.04		0			1			1			1.1		0.9;
	2		1		2.0125  1.05 	0		0		1		0.9603		-5.9759		1			1			1.1		0.9;
	3		2		0		0		0		0		1		1.02		-3.1112		1			1			1.1		0.9;
	4		1		1.2250  0.525 	0		0		1		0.9151		-10.0783	1			1			1.1		0.9;
	5		1		1.2250  0.525 	0		0		1		0.9681		-5.2483		1			1			1.1		0.9;
];

%% generator data
%	bus	Pg	Qg	Qmax	Qmin	Vg	mBase	status	Pmax	Pmin	Pc1	Pc2	Qc1min	Qc1max	Qc2min	Qc2max	ramp_agc	ramp_10	ramp_30	ramp_q	apf
mpc.gen = [
	1	 0	 0	 0	     0	    1.04	1.00	1	     0	     0	0	0	0	0	0	0	0	0	0	0	0;
	3	 1.1 0	 2.5     0  	1.02	1.00    1	     0	     0	0	0	0	0	0	0	0	0	0	0	0;
    %3	 1.1 0	999     0  	1.02	1.00    1	     0	     0	0	0	0	0	0	0	0	0	0	0	0;
];

%% branch data
%	fbus	tbus	r	x	b	rateA	rateB	rateC	ratio	angle	status	angmin	angmax
mpc.branch = [
	1	2	0.042000006720001	0.1680000268800042	0	0	0	0	0	0	1	-360	360;
	1	5	0.030999941460005	0.1260000010399741	0	0	0	0	0	0	1	-360	360;
	2	3	0.030999941460005	0.1260000010399741	0	0	0	0	0	0	1	-360	360;
	3	4	0.084000013440002	0.3360000537600091	0	0	0	0	0	0	1	-360	360;
	3	5	0.053000181350123	0.2100000547498891	0	0	0	0	0	0	1	-360	360;
	4	5	0.073967988752363	0.2709417169371221	0	0	0	0	0	0	1	-360	360;
]